# floatingObject
error information


/*---------------------------------------------------------------------------*\
| =========                 |                                                 |
| \\      /  F ield         | OpenFOAM: The Open Source CFD Toolbox           |
|  \\    /   O peration     | Version:  3.0.1                                 |
|   \\  /    A nd           | Web:      www.OpenFOAM.org                      |
|    \\/     M anipulation  |                                                 |
\*---------------------------------------------------------------------------*/
Build  : 3.0.1-d8a290b55d28
Exec   : interDyMFoam
Date   : Jun 26 2017
Time   : 08:32:23
Host   : "yy"
PID    : 20859
Case   : /home/yy/OpenFOAM/yy-3.0.1/run/tutorials/multiphase/interDyMFoam/ras/floatingObject
nProcs : 1
sigFpe : Enabling floating point exception trapping (FOAM_SIGFPE).
fileModificationChecking : Monitoring run-time modified files using timeStampMaster
allowSystemOperations : Allowing user-supplied system call operations

// * * * * * * * * * * * * * * * * * * * * * * * * * * * * * * * * * * * * * //
Create time

Create mesh for time = 0

Using #calcEntry at line 40 in file "/home/yy/OpenFOAM/yy-3.0.1/run/tutorials/multiphase/interDyMFoam/ras/floatingObject/constant/dynamicMeshDict.sixDoFRigidBodyMotionCoeffs"
Using #codeStream with "/home/yy/OpenFOAM/yy-3.0.1/run/tutorials/multiphase/interDyMFoam/ras/floatingObject/dynamicCode/platforms/linux64GccDPInt32Opt/lib/libcodeStream_23afbdb49efd3f7748d81ebd6df2c1cbbcaeaa5e.so"
Creating new library in "dynamicCode/_23afbdb49efd3f7748d81ebd6df2c1cbbcaeaa5e/platforms/linux64GccDPInt32Opt/lib/libcodeStream_23afbdb49efd3f7748d81ebd6df2c1cbbcaeaa5e.so"
Invoking "wmake -s libso /home/yy/OpenFOAM/yy-3.0.1/run/tutorials/multiphase/interDyMFoam/ras/floatingObject/dynamicCode/_23afbdb49efd3f7748d81ebd6df2c1cbbcaeaa5e"
wmakeLnInclude: linking include files to ./lnInclude
Making dependency list for source file codeStreamTemplate.C
'/home/yy/OpenFOAM/yy-3.0.1/run/tutorials/multiphase/interDyMFoam/ras/floatingObject/dynamicCode/_23afbdb49efd3f7748d81ebd6df2c1cbbcaeaa5e/../platforms/linux64GccDPInt32Opt/lib/libcodeStream_23afbdb49efd3f7748d81ebd6df2c1cbbcaeaa5e.so' is up to date.
Using #codeStream at line 43 in file "/home/yy/OpenFOAM/yy-3.0.1/run/tutorials/multiphase/interDyMFoam/ras/floatingObject/constant/dynamicMeshDict.sixDoFRigidBodyMotionCoeffs"
Using #codeStream with "/home/yy/OpenFOAM/yy-3.0.1/run/tutorials/multiphase/interDyMFoam/ras/floatingObject/dynamicCode/platforms/linux64GccDPInt32Opt/lib/libcodeStream_d1571a5e38a3a0786c7b4e5272deee1de0e4fd4c.so"
Creating new library in "dynamicCode/_d1571a5e38a3a0786c7b4e5272deee1de0e4fd4c/platforms/linux64GccDPInt32Opt/lib/libcodeStream_d1571a5e38a3a0786c7b4e5272deee1de0e4fd4c.so"
Invoking "wmake -s libso /home/yy/OpenFOAM/yy-3.0.1/run/tutorials/multiphase/interDyMFoam/ras/floatingObject/dynamicCode/_d1571a5e38a3a0786c7b4e5272deee1de0e4fd4c"
wmakeLnInclude: linking include files to ./lnInclude
Making dependency list for source file codeStreamTemplate.C
'/home/yy/OpenFOAM/yy-3.0.1/run/tutorials/multiphase/interDyMFoam/ras/floatingObject/dynamicCode/_d1571a5e38a3a0786c7b4e5272deee1de0e4fd4c/../platforms/linux64GccDPInt32Opt/lib/libcodeStream_d1571a5e38a3a0786c7b4e5272deee1de0e4fd4c.so' is up to date.
Selecting dynamicFvMesh dynamicMotionSolverFvMesh
Using #calcEntry at line 40 in file "/home/yy/OpenFOAM/yy-3.0.1/run/tutorials/multiphase/interDyMFoam/ras/floatingObject/constant/dynamicMeshDict.sixDoFRigidBodyMotionCoeffs"
Using #codeStream with "/home/yy/OpenFOAM/yy-3.0.1/run/tutorials/multiphase/interDyMFoam/ras/floatingObject/dynamicCode/platforms/linux64GccDPInt32Opt/lib/libcodeStream_23afbdb49efd3f7748d81ebd6df2c1cbbcaeaa5e.so"
Using #codeStream at line 43 in file "/home/yy/OpenFOAM/yy-3.0.1/run/tutorials/multiphase/interDyMFoam/ras/floatingObject/constant/dynamicMeshDict.sixDoFRigidBodyMotionCoeffs"
Using #codeStream with "/home/yy/OpenFOAM/yy-3.0.1/run/tutorials/multiphase/interDyMFoam/ras/floatingObject/dynamicCode/platforms/linux64GccDPInt32Opt/lib/libcodeStream_d1571a5e38a3a0786c7b4e5272deee1de0e4fd4c.so"
Selecting motion solver: sixDoFRigidBodyMotion
Using #calcEntry at line 40 in file "/home/yy/OpenFOAM/yy-3.0.1/run/tutorials/multiphase/interDyMFoam/ras/floatingObject/constant/dynamicMeshDict.sixDoFRigidBodyMotionCoeffs"
Using #codeStream with "/home/yy/OpenFOAM/yy-3.0.1/run/tutorials/multiphase/interDyMFoam/ras/floatingObject/dynamicCode/platforms/linux64GccDPInt32Opt/lib/libcodeStream_23afbdb49efd3f7748d81ebd6df2c1cbbcaeaa5e.so"
Using #codeStream at line 43 in file "/home/yy/OpenFOAM/yy-3.0.1/run/tutorials/multiphase/interDyMFoam/ras/floatingObject/constant/dynamicMeshDict.sixDoFRigidBodyMotionCoeffs"
Using #codeStream with "/home/yy/OpenFOAM/yy-3.0.1/run/tutorials/multiphase/interDyMFoam/ras/floatingObject/dynamicCode/platforms/linux64GccDPInt32Opt/lib/libcodeStream_d1571a5e38a3a0786c7b4e5272deee1de0e4fd4c.so"
Selecting sixDoFSolver Newmark
Translational constraint tensor (0 0 0 0 1 0 0 0 0)
Rotational constraint tensor (0 0 0 0 1 0 0 0 0)

PIMPLE: no residual control data found. Calculations will employ 3 corrector loops

Reading field p_rgh

Reading field U

Reading/calculating face flux field phi

Reading transportProperties

Selecting incompressible transport model Newtonian
Selecting incompressible transport model Newtonian
Selecting turbulence model type RAS
Selecting RAS turbulence model kEpsilon
kEpsilonCoeffs
{
    Cmu             0.09;
    C1              1.44;
    C2              1.92;
    C3              -0.33;
    sigmak          1;
    sigmaEps        1.3;
}


Reading g

Reading hRef
Calculating field g.h

No MRF models present

No finite volume options present

GAMGPCG:  Solving for pcorr, Initial residual = 0, Final residual = 0, No Iterations 0
time step continuity errors : sum local = 0, global = 0, cumulative = 0
Reading/calculating face velocity Uf

Courant Number mean: 0 max: 0

Starting time loop

Courant Number mean: 0 max: 0
Interface Courant Number mean: 0 max: 0
deltaT = 0.0119047619048
Time = 0.0119048

PIMPLE: iteration 1

6-DoF rigid body motion
    Centre of rotation: (0.5 0.45 0.1)
    Centre of mass: (0.499911410716 0.45 0.349999984304)
    Orientation: (0.999999937216 0 -0.000354357135441 0 1 0 0.000354357135441 0 0.999999937216)
    Linear velocity: (0 1.57850198961e-17 0)
    Angular velocity: (0 -0.059532 0)
Execution time for mesh.update() = 0.03 s
GAMGPCG:  Solving for pcorr, Initial residual = 1, Final residual = 1.51090659816e-06, No Iterations 5
time step continuity errors : sum local = 9.39925382171e-11, global = 6.14548021511e-11, cumulative = 6.14548021511e-11
smoothSolver:  Solving for alpha.water, Initial residual = 5.29224320482e-05, Final residual = 1.13400838331e-10, No Iterations 1
Phase-1 volume fraction = 0.505000000017  Min(alpha.water) = 0  Max(alpha.water) = 1.0000000003
MULES: Correcting alpha.water
MULES: Correcting alpha.water
Phase-1 volume fraction = 0.505000000017  Min(alpha.water) = 0  Max(alpha.water) = 1.0000000003
GAMG:  Solving for p_rgh, Initial residual = 1, Final residual = 0.00675489597656, No Iterations 1
time step continuity errors : sum local = 0.00311300556355, global = -0.00227375641308, cumulative = -0.00227375635162
PIMPLE: iteration 2

6-DoF rigid body motion
    Centre of rotation: (0.5 0.449963050423 0.1)
    Centre of mass: (0.499991289328 0.449963050423 0.349999999848)
    Orientation: (0.999999999393 0 -3.48426874147e-05 0 1 0 3.48426874147e-05 0 0.999999999393)
    Linear velocity: (0 -0.00620752900658 0)
    Angular velocity: (0 -0.00585357148685 0)
Execution time for mesh.update() = 0.03 s
GAMGPCG:  Solving for pcorr, Initial residual = 1, Final residual = 3.94019784703e-06, No Iterations 5
time step continuity errors : sum local = 1.24966804117e-08, global = 3.14753605589e-09, cumulative = -0.00227375320409
smoothSolver:  Solving for alpha.water, Initial residual = 0.000235518200416, Final residual = 9.4224853539e-13, No Iterations 2
Phase-1 volume fraction = 0.505  Min(alpha.water) = 0  Max(alpha.water) = 1.00094069917
Applying the previous iteration compression flux
MULES: Correcting alpha.water
MULES: Correcting alpha.water
MULES: Correcting alpha.water
Phase-1 volume fraction = 0.505  Min(alpha.water) = -1.30033652246e-12  Max(alpha.water) = 1.00094069917
GAMG:  Solving for p_rgh, Initial residual = 0.00129569565818, Final residual = 7.29864261755e-06, No Iterations 4
time step continuity errors : sum local = 0.000163146691983, global = -0.000161258812536, cumulative = -0.00243501201662
PIMPLE: iteration 3

6-DoF rigid body motion
    Centre of rotation: (0.5 0.450012653838 0.1)
    Centre of mass: (0.500445564547 0.450012653838 0.349999602944)
    Orientation: (0.999998411777 0 0.0017822581892 0 1 0 -0.0017822581892 0 0.999998411777)
    Linear velocity: (0 0.00212584475143 0)
    Angular velocity: (0 0.299419534301 0)
Execution time for mesh.update() = 0.06 s
GAMGPCG:  Solving for pcorr, Initial residual = 1, Final residual = 3.11737935651e-06, No Iterations 5
time step continuity errors : sum local = 1.68117734439e-09, global = 6.69073194695e-10, cumulative = -0.00243501134755
smoothSolver:  Solving for alpha.water, Initial residual = 0.000463924935709, Final residual = 1.41122445285e-12, No Iterations 2
Phase-1 volume fraction = 0.504999999999  Min(alpha.water) = 0  Max(alpha.water) = 1.00633048398
Applying the previous iteration compression flux
MULES: Correcting alpha.water
MULES: Correcting alpha.water
MULES: Correcting alpha.water
Phase-1 volume fraction = 0.504999999999  Min(alpha.water) = -2.77624846097e-07  Max(alpha.water) = 1.00633048398
GAMGPCG:  Solving for p_rgh, Initial residual = 0.00116997185672, Final residual = 7.15640673101e-10, No Iterations 5
time step continuity errors : sum local = 2.8219308542e-08, global = -3.73771643621e-09, cumulative = -0.00243501508526
smoothSolver:  Solving for epsilon, Initial residual = 0.0143726852301, Final residual = 1.34529271486e-07, No Iterations 5
smoothSolver:  Solving for k, Initial residual = 0.999999999992, Final residual = 2.17426524995e-07, No Iterations 8
ExecutionTime = 0.41 s  ClockTime = 1 s

Courant Number mean: 0.015339848741 max: 0.132486974725
Interface Courant Number mean: 0.000562806796626 max: 0.132486974725
deltaT = 0.0139455782313
Time = 0.0258503

PIMPLE: iteration 1

6-DoF rigid body motion
    Centre of rotation: (0.5 0.450004971049 0.1)
    Centre of mass: (0.502489918776 0.450004971049 0.349987600301)
    Orientation: (0.999950401206 0 0.00995967510316 0 1 0 -0.00995967510316 0 0.999950401206)
    Linear velocity: (0 -0.00322766915314 0)
    Angular velocity: (0 0.873365200856 0)
Execution time for mesh.update() = 0.02 s
GAMGPCG:  Solving for pcorr, Initial residual = 1, Final residual = 5.53696447894e-06, No Iterations 5
time step continuity errors : sum local = 1.14755704532e-08, global = 8.64725919614e-09, cumulative = -0.00243500643801
smoothSolver:  Solving for alpha.water, Initial residual = 0.0017921106154, Final residual = 8.41701447109e-09, No Iterations 2
Phase-1 volume fraction = 0.504999992  Min(alpha.water) = -2.35251958819e-07  Max(alpha.water) = 1.00633041697
Applying the previous iteration compression flux
MULES: Correcting alpha.water
MULES: Correcting alpha.water
MULES: Correcting alpha.water
Phase-1 volume fraction = 0.504999992  Min(alpha.water) = -2.34558962843e-07  Max(alpha.water) = 1.00633041697
GAMG:  Solving for p_rgh, Initial residual = 0.00551401399861, Final residual = 1.88325447167e-05, No Iterations 2
time step continuity errors : sum local = 0.000576880314061, global = 5.95307248811e-05, cumulative = -0.00237547571312
PIMPLE: iteration 2

6-DoF rigid body motion
    Centre of rotation: (0.5 0.449926403688 0.1)
    Centre of mass: (0.500479726365 0.449926403688 0.349999539725)
    Orientation: (0.999998158899 0 0.00191890545926 0 1 0 -0.00191890545926 0 0.999998158899)
    Linear velocity: (0 -0.0144953784954 0)
    Angular velocity: (-0 -0.279822282486 0)
Execution time for mesh.update() = 0.03 s
GAMGPCG:  Solving for pcorr, Initial residual = 1, Final residual = 3.60520905675e-06, No Iterations 5
time step continuity errors : sum local = 1.19949980167e-08, global = -6.4579447465e-09, cumulative = -0.00237548217107
smoothSolver:  Solving for alpha.water, Initial residual = 0.0015444378074, Final residual = 1.17070780521e-10, No Iterations 2
Phase-1 volume fraction = 0.504999999895  Min(alpha.water) = -2.29002004843e-08  Max(alpha.water) = 1.00633046326
Applying the previous iteration compression flux
MULES: Correcting alpha.water
MULES: Correcting alpha.water
MULES: Correcting alpha.water
Phase-1 volume fraction = 0.504999999895  Min(alpha.water) = -5.4047266179e-06  Max(alpha.water) = 1.00633046326
GAMG:  Solving for p_rgh, Initial residual = 0.00827375704633, Final residual = 3.61221854177e-05, No Iterations 2
time step continuity errors : sum local = 0.00104551098947, global = -3.23732192735e-05, cumulative = -0.00240785539034
PIMPLE: iteration 3

6-DoF rigid body motion
    Centre of rotation: (0.5 0.45025120347 0.1)
    Centre of mass: (0.502760372199 0.45025120347 0.349984760226)
    Orientation: (0.999939040905 0 0.0110414887949 0 1 0 -0.0110414887949 0 0.999939040905)
    Linear velocity: (0 0.0320856634977 0)
    Angular velocity: (0 1.02852167743 0)
Execution time for mesh.update() = 0.05 s
GAMGPCG:  Solving for pcorr, Initial residual = 1, Final residual = 5.56051545411e-06, No Iterations 5
time step continuity errors : sum local = 2.41815307065e-08, global = -2.11340260836e-09, cumulative = -0.00240785750374
smoothSolver:  Solving for alpha.water, Initial residual = 0.00172656167403, Final residual = 1.06669019596e-10, No Iterations 3
Phase-1 volume fraction = 0.504999999892  Min(alpha.water) = -2.29950348767e-07  Max(alpha.water) = 1.00633048545
Applying the previous iteration compression flux
MULES: Correcting alpha.water
MULES: Correcting alpha.water
MULES: Correcting alpha.water
Phase-1 volume fraction = 0.504999999892  Min(alpha.water) = -1.83985393619e-08  Max(alpha.water) = 1.00633048545
GAMGPCG:  Solving for p_rgh, Initial residual = 0.00457861319555, Final residual = 1.26922450178e-09, No Iterations 5
time step continuity errors : sum local = 3.99628380541e-08, global = -4.36435410735e-09, cumulative = -0.0024078618681
smoothSolver:  Solving for epsilon, Initial residual = 0.0148795814636, Final residual = 4.14328997309e-07, No Iterations 5
smoothSolver:  Solving for k, Initial residual = 0.550828609462, Final residual = 6.53984963328e-07, No Iterations 7
ExecutionTime = 0.73 s  ClockTime = 1 s

Courant Number mean: 0.114508296248 max: 0.879600105892
Interface Courant Number mean: 0.0056049227289 max: 0.578159272995
deltaT = 0.0152951503182
Time = 0.0411455

PIMPLE: iteration 1

6-DoF rigid body motion
    Centre of rotation: (0.5 0.449992666301 0.1)
    Centre of mass: (0.50477795867 0.449992666301 0.349954338052)
    Orientation: (0.999817352208 0 0.0191118346781 0 1 0 -0.0191118346781 0 0.999817352208)
    Linear velocity: (0 -0.0658920875887 0)
    Angular velocity: (0 0.0268828152669 0)
Execution time for mesh.update() = 0.02 s
GAMGPCG:  Solving for pcorr, Initial residual = 1, Final residual = 4.10054893904e-06, No Iterations 5
time step continuity errors : sum local = 1.62919928701e-08, global = 3.93206591755e-09, cumulative = -0.00240785793603
smoothSolver:  Solving for alpha.water, Initial residual = 0.00190429183501, Final residual = 4.30497993123e-11, No Iterations 3
Phase-1 volume fraction = 0.504999999851  Min(alpha.water) = -1.4529822211e-08  Max(alpha.water) = 1.00633026509
Applying the previous iteration compression flux
MULES: Correcting alpha.water
MULES: Correcting alpha.water
MULES: Correcting alpha.water
Phase-1 volume fraction = 0.504999999851  Min(alpha.water) = -1.17543111463e-07  Max(alpha.water) = 1.00633026509
GAMG:  Solving for p_rgh, Initial residual = 0.00645449085352, Final residual = 4.61822232536e-05, No Iterations 2
time step continuity errors : sum local = 0.001404338332, global = -0.000303909751846, cumulative = -0.00271176768788
PIMPLE: iteration 2

6-DoF rigid body motion
    Centre of rotation: (0.5 0.453109031368 0.1)
    Centre of mass: (0.512391225534 0.453109031368 0.349692726225)
    Orientation: (0.998770904901 0 0.0495649021378 0 1 0 -0.0495649021378 0 0.998770904901)
    Linear velocity: (0 0.341605060481 0)
    Angular velocity: (0 4.01144260198 0)
Execution time for mesh.update() = 0.06 s
GAMGPCG:  Solving for pcorr, Initial residual = 1, Final residual = 4.75426095183e-06, No Iterations 5
time step continuity errors : sum local = 7.03658792247e-08, global = -1.03079066438e-08, cumulative = -0.00271177799579
smoothSolver:  Solving for alpha.water, Initial residual = 0.00583291563017, Final residual = 4.7436039463e-10, No Iterations 5
Phase-1 volume fraction = 0.504999999417  Min(alpha.water) = -3.68108273838e-12  Max(alpha.water) = 1.00633039999
Applying the previous iteration compression flux
MULES: Correcting alpha.water
MULES: Correcting alpha.water
MULES: Correcting alpha.water
Phase-1 volume fraction = 0.504999999417  Min(alpha.water) = -3.99069772177e-08  Max(alpha.water) = 1.00633039999
GAMG:  Solving for p_rgh, Initial residual = 0.00739356693502, Final residual = 4.80073704683e-05, No Iterations 2
time step continuity errors : sum local = 0.00194513504204, global = 0.000226927504705, cumulative = -0.00248485049108
PIMPLE: iteration 3

6-DoF rigid body motion
    Centre of rotation: (0.5 0.446159165337 0.1)
    Centre of mass: (0.503037059321 0.446159165337 0.349981551861)
    Orientation: (0.999926207443 0 0.012148237284 0 1 0 -0.012148237284 0 0.999926207443)
    Linear velocity: (0 -0.567162213632 0)
    Angular velocity: (0 -0.883793063956 0)
Execution time for mesh.update() = 0.01 s
GAMGPCG:  Solving for pcorr, Initial residual = 1, Final residual = 3.16336228661e-06, No Iterations 5
time step continuity errors : sum local = 7.32964763727e-08, global = -5.58929249992e-10, cumulative = -0.00248485105001
smoothSolver:  Solving for alpha.water, Initial residual = 0.00763923667103, Final residual = 4.11929597615e-09, No Iterations 3
Phase-1 volume fraction = 0.504999995902  Min(alpha.water) = -6.94086951155e-12  Max(alpha.water) = 1.00633017923
Applying the previous iteration compression flux
MULES: Correcting alpha.water
MULES: Correcting alpha.water
MULES: Correcting alpha.water
Phase-1 volume fraction = 0.504999995902  Min(alpha.water) = -0.00424657951291  Max(alpha.water) = 1.00633017923
GAMGPCG:  Solving for p_rgh, Initial residual = 0.0152437469526, Final residual = 1.9985618474e-09, No Iterations 6
time step continuity errors : sum local = 6.75910312081e-08, global = -2.20994011543e-09, cumulative = -0.00248485325995
smoothSolver:  Solving for epsilon, Initial residual = 0.0172056315453, Final residual = 6.87949365123e-07, No Iterations 4
smoothSolver:  Solving for k, Initial residual = 0.316448714231, Final residual = 5.02507606469e-07, No Iterations 6
ExecutionTime = 1.05 s  ClockTime = 2 s

Courant Number mean: 0.191536712387 max: 1.15873741353
Interface Courant Number mean: 0.0139280601446 max: 0.850839968398
deltaT = 0.0131101288442
Time = 0.0542556

PIMPLE: iteration 1

6-DoF rigid body motion
    Centre of rotation: (0.5 0.445265588299 0.1)
    Centre of mass: (0.504163616214 0.445265588299 0.349965326196)
    Orientation: (0.999861304782 0 0.0166544648543 0 1 0 -0.0166544648543 0 0.999861304782)
    Linear velocity: (0 0.430843639077 0)
    Angular velocity: (0 1.57130709317 0)
Execution time for mesh.update() = 0.01 s
GAMGPCG:  Solving for pcorr, Initial residual = 1, Final residual = 3.4487228098e-06, No Iterations 5
time step continuity errors : sum local = 4.14072434404e-08, global = 1.13944705284e-08, cumulative = -0.00248484186548
smoothSolver:  Solving for alpha.water, Initial residual = 0.00148804064506, Final residual = 7.09819750195e-11, No Iterations 3
Phase-1 volume fraction = 0.504999995833  Min(alpha.water) = -0.00156875455437  Max(alpha.water) = 1.00633002609
Applying the previous iteration compression flux
MULES: Correcting alpha.water
MULES: Correcting alpha.water
MULES: Correcting alpha.water
Phase-1 volume fraction = 0.504999995833  Min(alpha.water) = -0.00120999618049  Max(alpha.water) = 1.00633002609
GAMG:  Solving for p_rgh, Initial residual = 0.00321559186635, Final residual = 2.35443545687e-05, No Iterations 3
time step continuity errors : sum local = 0.00103459884953, global = 0.000202002857532, cumulative = -0.00228283900795
PIMPLE: iteration 2

6-DoF rigid body motion
    Centre of rotation: (0.5 0.414388347781 0.1)
    Centre of mass: (0.487526740158 0.414388347781 0.34968864169)
    Orientation: (0.998754566759 0 -0.0498930393666 0 1 0 0.0498930393666 0 0.998754566759)
    Linear velocity: (-0 -4.27959679749 -0)
    Angular velocity: (0 -8.5840465514 0)
Execution time for mesh.update() = 0.01 s
GAMGPCG:  Solving for pcorr, Initial residual = 1, Final residual = 5.34810983874e-06, No Iterations 5
time step continuity errors : sum local = 3.05461362329e-07, global = -1.62482747683e-07, cumulative = -0.0022830014907
smoothSolver:  Solving for alpha.water, Initial residual = 0.0170069423993, Final residual = 8.7935456297e-09, No Iterations 6
Phase-1 volume fraction = 0.504999980819  Min(alpha.water) = -0.00161991019811  Max(alpha.water) = 1.00470410794
Applying the previous iteration compression flux
MULES: Correcting alpha.water
MULES: Correcting alpha.water
MULES: Correcting alpha.water
Phase-1 volume fraction = 0.504999985638  Min(alpha.water) = -0.00224715056835  Max(alpha.water) = 1.00576975832
GAMG:  Solving for p_rgh, Initial residual = 0.0685531622315, Final residual = 0.000326117001856, No Iterations 3
time step continuity errors : sum local = 0.00187761804282, global = -0.000744855554903, cumulative = -0.0030278570456
PIMPLE: iteration 3

6-DoF rigid body motion
    Centre of rotation: (0.5 0.569773388812 0.1)
    Centre of mass: (0.551415462781 0.569773388812 0.344655778977)
    Orientation: (0.978623115909 0 0.205661851126 0 1 0 -0.205661851126 0 0.978623115909)
    Linear velocity: (0 19.424981987 0)
    Angular velocity: (0 30.6304773201 0)
Execution time for mesh.update() = 0.01 s
GAMGPCG:  Solving for pcorr, Initial residual = 1, Final residual = 6.83458733209e-06, No Iterations 6
time step continuity errors : sum local = 2.20883321057e-06, global = 2.7541636847e-07, cumulative = -0.00302758162923
smoothSolver:  Solving for alpha.water, Initial residual = 0.0698721446628, Final residual = 6.89768307994e-09, No Iterations 10
Phase-1 volume fraction = 0.504999289483  Min(alpha.water) = 0  Max(alpha.water) = 1.00529809343
Applying the previous iteration compression flux
MULES: Correcting alpha.water
MULES: Correcting alpha.water
MULES: Correcting alpha.water
Phase-1 volume fraction = 0.504999394092  Min(alpha.water) = -0.055642358437  Max(alpha.water) = 1.29958145222
GAMGPCG:  Solving for p_rgh, Initial residual = 0.0133480513215, Final residual = 0.0133726237003, No Iterations 21
time step continuity errors : sum local = 2.18562452872, global = -0.00229949229772, cumulative = -0.00532707392695
smoothSolver:  Solving for epsilon, Initial residual = 0.831414436869, Final residual = 6.06164816838e-07, No Iterations 24
smoothSolver:  Solving for k, Initial residual = 0.981306803252, Final residual = 9.53000214518e-07, No Iterations 26
bounding k, min: -0.09372420249 max: 28.8778638425 average: 0.331800514926
ExecutionTime = 1.43 s  ClockTime = 2 s

Courant Number mean: 7.78840100548 max: 6879.68540524
Interface Courant Number mean: 1.8142348147 max: 108.409525993
deltaT = 1.90562344791e-06
Time = 0.0542575

PIMPLE: iteration 1

6-DoF rigid body motion
    Centre of rotation: (0.5 0.5698104122 0.1)
    Centre of mass: (0.55142974597 0.5698104122 0.344652776868)
    Orientation: (0.978611107474 0 0.205718983881 0 1 0 -0.205718983881 0 0.978611107474)
    Linear velocity: (0 19.431999906 0)
    Angular velocity: (0 30.6419765239 0)
Execution time for mesh.update() = 0.03 s
GAMGPCG:  Solving for pcorr, Initial residual = 1, Final residual = 0.99999630455, No Iterations 101
time step continuity errors : sum local = 0.000321098873082, global = -3.25331407772e-07, cumulative = -0.00532739925835
smoothSolver:  Solving for alpha.water, Initial residual = 6.07236037242e-05, Final residual = 3.74981253438e-11, No Iterations 1
Phase-1 volume fraction = 0.504999394073  Min(alpha.water) = -0.0555979521196  Max(alpha.water) = 3.79554338051
Applying the previous iteration compression flux
MULES: Correcting alpha.water
MULES: Correcting alpha.water
MULES: Correcting alpha.water
Phase-1 volume fraction = 0.504999393995  Min(alpha.water) = -0.0555861131963  Max(alpha.water) = 3.79554338051
#0  Foam::error::printStack(Foam::Ostream&) at ??:?
#1  Foam::sigFpe::sigHandler(int) at ??:?
#2  ? in "/lib/x86_64-linux-gnu/libc.so.6"
#3  Foam::GAMGSolver::scale(Foam::Field<double>&, Foam::Field<double>&, Foam::lduMatrix const&, Foam::FieldField<Foam::Field, double> const&, Foam::UPtrList<Foam::lduInterfaceField const> const&, Foam::Field<double> const&, unsigned char) const at ??:?
#4  Foam::GAMGSolver::Vcycle(Foam::PtrList<Foam::lduMatrix::smoother> const&, Foam::Field<double>&, Foam::Field<double> const&, Foam::Field<double>&, Foam::Field<double>&, Foam::Field<double>&, Foam::Field<double>&, Foam::Field<double>&, Foam::PtrList<Foam::Field<double> >&, Foam::PtrList<Foam::Field<double> >&, unsigned char) const at ??:?
#5  Foam::GAMGSolver::solve(Foam::Field<double>&, Foam::Field<double> const&, unsigned char) const at ??:?
#6  Foam::fvMatrix<double>::solveSegregated(Foam::dictionary const&) at ??:?
#7  Foam::fvMatrix<double>::solve(Foam::dictionary const&) at ??:?
#8  ? at ??:?
#9  __libc_start_main in "/lib/x86_64-linux-gnu/libc.so.6"
#10  ? at ??:?
Floating point exception (core dumped)
